Version 4
SHEET 1 1272 680
WIRE 864 -48 864 -80
WIRE 864 -48 800 -48
WIRE 944 -48 864 -48
WIRE 288 -32 288 -48
WIRE 288 -32 176 -32
WIRE 416 -32 288 -32
WIRE 800 -32 800 -48
WIRE -96 0 -96 -32
WIRE 176 0 176 -32
WIRE 416 0 416 -32
WIRE 1040 32 992 32
WIRE 1120 32 1104 32
WIRE 800 48 800 32
WIRE 944 48 944 -48
WIRE 416 96 416 80
WIRE 608 96 416 96
WIRE 800 96 800 48
WIRE 800 96 672 96
WIRE 880 96 800 96
WIRE -96 128 -96 80
WIRE 176 128 176 80
WIRE 416 128 416 96
WIRE 800 144 800 96
WIRE 992 144 992 32
WIRE 992 144 944 144
WIRE 800 160 800 144
WIRE 112 176 64 176
WIRE 528 176 480 176
WIRE 528 208 528 176
WIRE 944 256 944 224
WIRE 176 272 176 224
WIRE 288 272 176 272
WIRE 416 272 416 224
WIRE 416 272 288 272
WIRE 800 272 800 224
WIRE -96 288 -96 208
WIRE 736 304 672 304
WIRE 288 320 288 272
WIRE 672 320 672 304
WIRE 512 352 512 304
WIRE 736 352 736 304
WIRE 512 464 512 432
WIRE 736 464 736 432
FLAG 800 272 0
FLAG 944 256 0
FLAG 864 -80 VCC
FLAG 288 -48 VCC
FLAG 64 176 V1
FLAG -96 -32 V1
FLAG 288 400 -VEE
FLAG 1120 32 Vo
FLAG -96 288 0
FLAG 512 464 0
FLAG 672 320 0
FLAG 512 304 VCC
FLAG 736 464 -VEE
FLAG 1120 112 0
FLAG 528 208 0
SYMBOL npn 112 128 R0
SYMATTR InstName Q1
SYMATTR Value BC547B
SYMBOL npn 480 128 M0
SYMATTR InstName Q2
SYMATTR Value BC547B
SYMBOL res 272 304 R0
SYMATTR InstName R1
SYMATTR Value 6k8
SYMBOL res 400 -16 R0
SYMATTR InstName R3
SYMATTR Value 6k8
SYMBOL cap 672 80 R90
WINDOW 0 0 32 VBottom 2
WINDOW 3 32 32 VTop 2
SYMATTR InstName C1
SYMATTR Value 100n
SYMBOL res 784 128 R0
SYMATTR InstName R6
SYMATTR Value 6K8
SYMBOL pnp 880 144 M180
SYMATTR InstName Q3
SYMATTR Value BC557B
SYMBOL res 928 128 R0
SYMATTR InstName R7
SYMATTR Value 680
SYMBOL res -112 -16 R0
SYMATTR InstName R4
SYMATTR Value 570
SYMBOL res 160 -16 R0
SYMATTR InstName R5
SYMATTR Value 6k8
SYMBOL voltage -96 112 R0
WINDOW 123 24 124 Left 2
WINDOW 39 0 0 Left 0
SYMATTR InstName Vs1
SYMATTR Value ""
SYMATTR Value2 AC 1
SYMBOL voltage 512 336 R0
WINDOW 123 0 0 Left 0
WINDOW 39 0 0 Left 0
SYMATTR InstName V2
SYMATTR Value 15
SYMBOL voltage 736 336 R0
WINDOW 123 0 0 Left 0
WINDOW 39 0 0 Left 0
SYMATTR InstName V3
SYMATTR Value 15
SYMBOL cap 1104 16 R90
WINDOW 0 0 32 VBottom 2
WINDOW 3 32 32 VTop 2
SYMATTR InstName C2
SYMATTR Value 100n
SYMBOL res 1104 16 R0
SYMATTR InstName R9
SYMATTR Value 2k2
SYMBOL res 784 -48 R0
SYMATTR InstName R2
SYMATTR Value 2K2
SYMBOL diode 624 -96 R0
SYMATTR InstName D1
SYMATTR Value 1N4148
TEXT -72 256 Left 2 !;ac dec 1000 1 10meg
TEXT -40 376 Left 2 !.tran 0 1 0 0.01
