Version 4
SHEET 1 1256 680
WIRE 864 -48 864 -80
WIRE 864 -48 800 -48
WIRE 944 -48 864 -48
WIRE 288 -32 288 -48
WIRE 288 -32 176 -32
WIRE 416 -32 288 -32
WIRE 800 -32 800 -48
WIRE -96 0 -96 -32
WIRE 416 0 416 -32
WIRE 1120 32 944 32
WIRE 944 48 944 32
WIRE 416 96 416 80
WIRE 608 96 416 96
WIRE 800 96 800 32
WIRE 800 96 672 96
WIRE 880 96 800 96
WIRE -96 128 -96 80
WIRE 176 128 176 -32
WIRE 416 128 416 96
WIRE 800 144 800 96
WIRE 112 176 64 176
WIRE 528 176 480 176
WIRE 944 256 944 224
WIRE 176 272 176 224
WIRE 288 272 176 272
WIRE 416 272 416 224
WIRE 416 272 288 272
WIRE 800 272 800 224
WIRE -96 288 -96 208
WIRE 288 320 288 272
FLAG 800 272 0
FLAG 944 256 0
FLAG 864 -80 VEE
FLAG 288 -48 VCC
FLAG 64 176 V1
FLAG -96 -32 V1
FLAG 528 176 V2
FLAG -96 288 V2
FLAG 288 400 -VEE
FLAG 1120 32 Vo
SYMBOL npn 112 128 R0
SYMATTR InstName Q1
SYMBOL npn 480 128 M0
SYMATTR InstName Q2
SYMBOL res 272 304 R0
SYMATTR InstName R1
SYMBOL res 400 -16 R0
SYMATTR InstName R3
SYMBOL cap 672 80 R90
WINDOW 0 0 32 VBottom 2
WINDOW 3 32 32 VTop 2
SYMATTR InstName C1
SYMBOL res 784 128 R0
SYMATTR InstName R6
SYMBOL pnp 880 144 M180
SYMATTR InstName Q3
SYMBOL res 928 128 R0
SYMATTR InstName R7
SYMBOL voltage -96 112 R0
SYMATTR InstName V1
SYMBOL res -112 -16 R0
SYMATTR InstName R4
SYMBOL diode 784 -32 R0
SYMATTR InstName D1
SYMBOL res 928 -64 R0
SYMATTR InstName R2
